
     RDKit          3D

  8  7  0  0  0  0  0  0  0  0999 V2000
    1.3529    0.9438   -0.0828 O   0  0  0  0  0  0  0  0  0  0  0  0
    0.5112    0.0079   -0.0753 C   0  0  0  0  0  0  0  0  0  0  0  0
    0.9253   -1.2975   -0.3010 O   0  0  0  0  0  0  0  0  0  0  0  0
    1.9122   -1.2657   -0.4436 R   0  0  0  0  0  0  0  0  0  0  0  0
   -0.9273    0.2964    0.1745 C   0  0  0  0  0  0  0  0  0  0  0  0
   -1.4050   -0.4254    0.1591 R   0  0  0  0  0  0  0  0  0  0  0  0
   -1.3171    0.9818   -0.6068 H   0  0  0  0  0  0  0  0  0  0  0  0
   -1.0522    0.7587    1.1759 H   0  0  0  0  0  0  0  0  0  0  0  0
  1  2  2  0
  2  3  1  0
  3  4  1  0
  2  5  1  0
  5  6  1  0
  5  7  1  0
  5  8  1  0
M  END
