
     RDKit          3D

  0  0  0  0  0  0  0  0  0  0999 V3000
M  V30 BEGIN CTAB
M  V30 COUNTS 560 559 0 0 0
M  V30 BEGIN ATOM
M  V30 1 O 4.903568 -10.855767 -4.495655 0
M  V30 2 C 4.307848 -9.812007 -4.281851 0
M  V30 3 O 2.986249 -9.824721 -4.011095 0
M  V30 4 C 4.935045 -8.422492 -4.295942 0
M  V30 5 O 5.783738 -5.954621 -3.833000 0
M  V30 6 C 4.575065 -6.162219 -3.808748 0
M  V30 7 O 3.997512 -7.371868 -4.035930 0
M  V30 8 C 3.551411 -5.073108 -3.536842 0
M  V30 9 O 1.661238 -3.304276 -3.204831 0
M  V30 10 C 1.313180 -4.460760 -3.384501 0
M  V30 11 O 2.181633 -5.488234 -3.599748 0
M  V30 12 C -0.127842 -4.955702 -3.439497 0
M  V30 13 O -2.558666 -4.497462 -4.468103 0
M  V30 14 C -2.225813 -3.863024 -3.463281 0
M  V30 15 O -1.013191 -3.998330 -2.845345 0
M  V30 16 C -3.064344 -2.776121 -2.811475 0
M  V30 17 O -4.932539 -1.155676 -1.806366 0
M  V30 18 C -5.034408 -1.528948 -2.969736 0
M  V30 19 O -4.216500 -2.435362 -3.585490 0
M  V30 20 C -6.062876 -0.995372 -3.961347 0
M  V30 21 O -8.575318 -0.094040 -4.472525 0
M  V30 22 C -7.835104 0.585568 -3.765235 0
M  V30 23 O -6.574962 0.248819 -3.433759 0
M  V30 24 C -8.197959 1.965256 -3.224564 0
M  V30 25 O -5.914124 2.535750 -1.937161 0
M  V30 26 C -6.962160 2.513672 -1.303836 0
M  V30 27 O -8.176713 2.166071 -1.812636 0
M  V30 28 C -7.096922 2.949506 0.153630 0
M  V30 29 O -6.828115 4.274404 2.477885 0
M  V30 30 C -5.818184 4.066111 1.808878 0
M  V30 31 O -5.803950 3.329905 0.660003 0
M  V30 32 C -4.419816 4.547776 2.193736 0
M  V30 33 O -1.770683 4.999126 2.428604 0
M  V30 34 C -2.258075 4.928055 1.310827 0
M  V30 35 O -3.584209 4.718262 1.047198 0
M  V30 36 C -1.495406 5.016551 -0.011234 0
M  V30 37 O -0.209188 7.374547 0.017017 0
M  V30 38 C 0.444219 6.340783 0.016368 0
M  V30 39 O -0.081070 5.078653 0.109099 0
M  V30 40 C 1.962935 6.222042 -0.157646 0
M  V30 41 C 4.967876 8.032323 -0.039348 0
M  V30 42 C 3.956635 7.276515 -0.902268 0 CFG=1
M  V30 43 O 2.645868 7.459322 -0.344608 0
M  V30 44 C 4.040563 7.801168 -2.329892 0
M  V30 45 O 4.816533 7.417161 -3.192734 0
M  V30 46 O 3.141576 8.758858 -2.624894 0
M  V30 47 C 8.614159 7.433731 0.360363 0
M  V30 48 C 7.243886 8.058163 0.676418 0 CFG=1
M  V30 49 O 6.264489 7.437170 -0.156951 0
M  V30 50 C 7.002890 7.913586 2.183639 0
M  V30 51 O 6.328764 7.063069 2.751374 0
M  V30 52 O 7.663088 8.852227 2.896153 0
M  V30 53 C 9.723821 3.956106 1.045069 0
M  V30 54 C 9.926546 5.448307 0.714133 0 CFG=1
M  V30 55 O 8.661271 6.098509 0.876334 0
M  V30 56 C 10.994502 5.979229 1.661786 0
M  V30 57 O 10.815751 6.732742 2.607352 0
M  V30 58 O 12.238442 5.556629 1.351394 0
M  V30 59 C 7.102066 2.081697 -0.035171 0
M  V30 60 C 7.811476 3.411547 -0.328748 0 CFG=1
M  V30 61 O 9.217869 3.208779 -0.070938 0
M  V30 62 C 7.647231 3.852258 -1.779375 0
M  V30 63 O 8.534564 4.237861 -2.530666 0
M  V30 64 O 6.366554 3.847318 -2.192079 0
M  V30 65 C 3.870622 2.136792 1.764016 0
M  V30 66 C 5.330343 2.577825 1.530390 0 CFG=1
M  V30 67 O 5.693305 2.178887 0.198362 0
M  V30 68 C 5.330613 4.082118 1.739619 0
M  V30 69 O 4.833105 4.896609 0.980760 0
M  V30 70 O 5.947044 4.441225 2.884104 0
M  V30 71 C 3.878144 -0.445838 4.429350 0
M  V30 72 C 3.734707 0.971374 3.854573 0 CFG=1
M  V30 73 O 3.800199 0.869219 2.431025 0
M  V30 74 C 2.435339 1.561367 4.404186 0
M  V30 75 O 2.334703 2.421086 5.268812 0
M  V30 76 O 1.319942 1.067426 3.825022 0
M  V30 77 C 2.900633 -2.212876 6.827073 0
M  V30 78 C 4.277278 -1.633430 6.493329 0 CFG=1
M  V30 79 O 4.136929 -0.363441 5.830767 0
M  V30 80 C 5.038790 -1.360268 7.784498 0
M  V30 81 O 5.022683 -0.338422 8.447644 0
M  V30 82 O 5.854484 -2.380547 8.140194 0
M  V30 83 C 1.917624 -5.178892 6.034734 0
M  V30 84 C 3.226602 -4.592793 6.579269 0 CFG=1
M  V30 85 O 2.944182 -3.488731 7.462117 0
M  V30 86 C 3.969920 -5.614764 7.438610 0
M  V30 87 O 5.086345 -6.067168 7.267218 0
M  V30 88 O 3.250586 -6.057548 8.494358 0
M  V30 89 C 2.933342 -7.924738 3.762376 0
M  V30 90 C 2.350317 -7.347895 5.060482 0 CFG=1
M  V30 91 O 2.109590 -5.947472 4.845955 0
M  V30 92 C 1.066653 -8.105517 5.417954 0
M  V30 93 O -0.025151 -7.631099 5.676514 0
M  V30 94 O 1.249318 -9.441472 5.509821 0
M  V30 95 C 6.076433 -7.092430 1.987072 0
M  V30 96 C 4.592698 -7.465552 2.094318 0 CFG=1
M  V30 97 O 4.146251 -7.223533 3.432632 0
M  V30 98 C 3.842303 -6.747687 0.968570 0
M  V30 99 O 4.126177 -6.786661 -0.224664 0
M  V30 100 O 2.757299 -6.072589 1.399853 0
M  V30 101 C 8.266114 -4.297451 2.892702 0
M  V30 102 C 7.649476 -5.324251 1.930042 0 CFG=1
M  V30 103 O 6.331972 -5.716965 2.331495 0
M  V30 104 C 7.777798 -4.806432 0.495676 0
M  V30 105 O 8.831275 -4.671094 -0.112111 0
M  V30 106 O 6.601174 -4.562683 -0.121140 0
M  V30 107 C 7.670483 -1.116512 4.442598 0
M  V30 108 C 8.420028 -1.993496 3.435666 0 CFG=1
M  V30 109 O 7.557001 -3.049780 2.974503 0
M  V30 110 C 8.913225 -1.106722 2.287649 0
M  V30 111 O 9.441476 -0.003195 2.384263 0
M  V30 112 O 8.796215 -1.681817 1.071970 0
M  V30 113 C 7.919555 1.848707 5.595631 0
M  V30 114 C 8.021661 0.450177 6.223385 0 CFG=1
M  V30 115 O 8.619222 -0.487359 5.315296 0
M  V30 116 C 8.892477 0.472937 7.469126 0
M  V30 117 O 8.570528 0.052012 8.572598 0
M  V30 118 O 10.128356 0.980553 7.268088 0
M  V30 119 C 4.882298 3.405600 7.064543 0
M  V30 120 C 6.380794 3.109315 6.955783 0 CFG=1
M  V30 121 O 6.593866 2.387651 5.731867 0
M  V30 122 C 7.169570 4.419661 7.020782 0
M  V30 123 O 8.096279 4.664705 7.783142 0
M  V30 124 O 6.829770 5.326605 6.077189 0
M  V30 125 C 2.936662 5.790250 8.997063 0
M  V30 126 C 3.166298 4.413635 8.359572 0 CFG=1
M  V30 127 O 4.577709 4.208745 8.206446 0
M  V30 128 C 2.501452 3.304184 9.171838 0
M  V30 129 O 3.008526 2.289617 9.613734 0
M  V30 130 O 1.165489 3.476243 9.328351 0
M  V30 131 O 2.851742 8.723634 9.484637 0
M  V30 132 C 3.009768 8.219895 10.810053 0
M  V30 133 C 3.922587 6.979612 10.851421 0
M  V30 134 O 3.231691 5.799856 10.396050 0
M  V30 135 C 4.344013 6.733674 12.312315 0
M  V30 136 O 5.425910 5.796859 12.362117 0
M  V30 137 O 3.842001 -0.300373 14.369340 0
M  V30 138 C 3.888212 0.436409 13.390985 0
M  V30 139 C 5.137094 1.102247 12.885838 0
M  V30 140 C 5.334161 2.464498 13.539122 0
M  V30 141 C 6.570891 3.168874 12.976437 0
M  V30 142 C 6.923335 4.465789 13.711216 0
M  V30 143 C 5.815954 5.517085 13.706960 0
M  V30 144 O 2.821527 0.785050 12.625961 0
M  V30 145 O -3.453803 -2.996680 11.079612 0
M  V30 146 C -2.900228 -2.055641 10.529445 0
M  V30 147 C -3.031742 -0.619462 10.989860 0
M  V30 148 C -1.731122 0.182160 10.942812 0
M  V30 149 C -0.727456 -0.267632 12.002650 0
M  V30 150 C 0.580439 0.503787 11.872163 0
M  V30 151 C 1.599116 0.107981 12.934297 0
M  V30 152 O -2.164606 -2.135197 9.389463 0
M  V30 153 O -3.083255 1.684888 4.740952 0
M  V30 154 C -2.346743 1.033173 5.471522 0
M  V30 155 C -2.052766 -0.439688 5.270772 0
M  V30 156 C -1.801803 -1.176957 6.589015 0
M  V30 157 C -1.676413 -2.688230 6.386112 0
M  V30 158 C -1.148518 -3.438309 7.616366 0
M  V30 159 C -2.085973 -3.449831 8.823361 0
M  V30 160 O -1.626851 1.539930 6.510935 0
M  V30 161 O -1.632057 8.187246 5.267358 0
M  V30 162 C -2.538013 7.502728 4.817272 0
M  V30 163 C -3.117330 6.279984 5.493638 0
M  V30 164 C -2.423355 5.953620 6.819543 0
M  V30 165 C -1.051749 5.285714 6.666054 0
M  V30 166 C -1.070908 3.871336 6.081157 0
M  V30 167 C -1.907191 2.893514 6.895249 0
M  V30 168 O -3.232050 7.763845 3.667095 0
M  V30 169 O -4.080749 8.916002 -4.079270 0
M  V30 170 C -3.940868 8.673382 -2.886423 0
M  V30 171 C -3.642579 9.736945 -1.859820 0
M  V30 172 C -4.326085 9.567309 -0.499995 0
M  V30 173 C -3.400741 8.994341 0.586325 0
M  V30 174 C -3.909839 9.361234 1.990697 0
M  V30 175 C -2.903239 9.028349 3.087290 0
M  V30 176 O -3.907881 7.422732 -2.348824 0
M  V30 177 O -1.954809 2.377494 -5.764316 0
M  V30 178 C -3.072995 2.155328 -6.197365 0
M  V30 179 C -4.346715 2.292507 -5.407939 0
M  V30 180 C -4.508760 3.665133 -4.764157 0
M  V30 181 C -3.638712 3.862366 -3.519423 0
M  V30 182 C -4.099747 5.044401 -2.666324 0
M  V30 183 C -3.911880 6.392117 -3.349821 0
M  V30 184 O -3.343071 1.724806 -7.466745 0
M  V30 185 O -0.057857 3.674209 -13.833860 0
M  V30 186 C -0.463666 3.108263 -12.824148 0
M  V30 187 C -1.925776 3.035298 -12.454127 0
M  V30 188 C -2.242160 2.307542 -11.142922 0
M  V30 189 C -1.941015 3.169001 -9.907757 0
M  V30 190 C -1.329115 2.380842 -8.759613 0
M  V30 191 C -2.210863 1.260609 -8.211791 0
M  V30 192 O 0.333082 2.465239 -11.934633 0
M  V30 193 O 2.748275 0.619771 -5.692415 0
M  V30 194 C 2.223325 0.501316 -6.791120 0
M  V30 195 C 2.744182 1.164439 -8.037753 0
M  V30 196 C 2.892805 0.209534 -9.234173 0
M  V30 197 C 2.107205 0.632716 -10.484430 0
M  V30 198 C 2.525518 2.005837 -11.037586 0
M  V30 199 C 1.727010 2.407019 -12.277755 0
M  V30 200 O 1.054458 -0.166823 -7.037963 0
M  V30 201 C -0.015385 -0.593429 -3.629748 0
M  V30 202 C -0.281875 -0.414075 -5.125656 0
M  V30 203 O 0.806217 -0.991542 -5.846332 0
M  V30 204 C -1.570215 -1.136370 -5.496980 0
M  V30 205 O -2.713437 -0.713187 -5.336593 0
M  V30 206 O -1.380646 -2.382734 -5.992239 0
M  V30 207 C -1.988307 0.072139 -0.587670 0
M  V30 208 C -0.700803 -0.081100 -1.413995 0
M  V30 209 O -0.993559 0.063420 -2.811555 0
M  V30 210 C 0.297443 0.944689 -0.882895 0
M  V30 211 O 0.807749 0.933319 0.226830 0
M  V30 212 O 0.627334 1.921941 -1.758016 0
M  V30 213 C -3.684418 -2.562514 1.505781 0
M  V30 214 C -3.166973 -1.146163 1.111783 0
M  V30 215 O -2.499613 -1.202585 -0.150113 0
M  V30 216 C -4.252634 -0.106806 1.453857 0
M  V30 217 O -5.100997 -0.210435 2.329732 0
M  V30 218 O -4.137419 1.043304 0.773397 0
M  V30 219 C -7.016386 -3.356336 -0.075642 0
M  V30 220 C -6.024753 -2.974197 1.047327 0
M  V30 221 O -4.664949 -3.187273 0.642535 0
M  V30 222 C -6.512282 -3.660601 2.326080 0
M  V30 223 O -7.639555 -3.572234 2.799404 0
M  V30 224 O -5.579084 -4.411401 2.943808 0
M  V30 225 C -8.214143 -6.904728 -0.342223 0
M  V30 226 C -8.294291 -5.392485 -0.050273 0
M  V30 227 O -7.058759 -4.759009 -0.381382 0
M  V30 228 C -9.618439 -4.915500 -0.671408 0
M  V30 229 O -10.727903 -5.313141 -0.360523 0
M  V30 230 O -9.490632 -3.986436 -1.653628 0
M  V30 231 C -8.514478 -8.993958 -3.422601 0
M  V30 232 C -8.781384 -8.534847 -1.978729 0
M  V30 233 O -8.315444 -7.197718 -1.750414 0
M  V30 234 C -10.281813 -8.654651 -1.731747 0
M  V30 235 O -10.825085 -9.537970 -1.085249 0
M  V30 236 O -11.005439 -7.674816 -2.315642 0
M  V30 237 C -5.402563 -10.572393 -4.826886 0
M  V30 238 C -6.911811 -10.333261 -4.628288 0
M  V30 239 O -7.135975 -9.355266 -3.602705 0
M  V30 240 C -7.467112 -10.040210 -6.025951 0
M  V30 241 O -7.858037 -10.879063 -6.824510 0
M  V30 242 O -7.455453 -8.731512 -6.345385 0
M  V30 243 C -4.341362 -11.799746 -1.500076 0
M  V30 244 C -4.766842 -11.982402 -2.964571 0
M  V30 245 O -4.666117 -10.711588 -3.609254 0
M  V30 246 C -3.922837 -13.075874 -3.624803 0
M  V30 247 O -3.242543 -12.986921 -4.636036 0
M  V30 248 O -4.058109 -14.274376 -3.009841 0
M  V30 249 C -2.581810 -9.135565 -0.804869 0
M  V30 250 C -2.653276 -10.585141 -0.297090 0
M  V30 251 O -2.950613 -11.461374 -1.398833 0
M  V30 252 C -1.313762 -10.983688 0.325759 0
M  V30 253 O -0.685472 -12.022953 0.151795 0
M  V30 254 O -0.858152 -10.093489 1.240429 0
M  V30 255 C -4.965114 -7.250588 -2.813932 0
M  V30 256 C -3.874811 -7.375428 -1.749527 0
M  V30 257 O -3.873376 -8.728313 -1.274880 0
M  V30 258 C -4.197559 -6.427279 -0.600003 0
M  V30 259 O -4.717688 -6.731452 0.465679 0
M  V30 260 O -3.791078 -5.170684 -0.863000 0
M  V30 261 C -5.188652 -5.214143 -5.819587 0
M  V30 262 C -5.809492 -5.943852 -4.626500 0
M  V30 263 O -4.776267 -6.091933 -3.634475 0
M  V30 264 C -6.926245 -5.070752 -4.071848 0
M  V30 265 O -6.784424 -4.080376 -3.371756 0
M  V30 266 O -8.167449 -5.463309 -4.447136 0
M  V30 267 C -5.450237 -3.112837 -8.078035 0
M  V30 268 C -5.415785 -4.654413 -8.128061 0
M  V30 269 O -6.035753 -5.228695 -6.975445 0
M  V30 270 C -5.972252 -5.186120 -9.452761 0
M  V30 271 O -5.691927 -4.755112 -10.564440 0
M  V30 272 O -6.797845 -6.245969 -9.341933 0
M  V30 273 O -8.656171 2.469984 -10.865618 0
M  V30 274 C -8.164597 1.921864 -9.887211 0
M  V30 275 C -8.402941 0.481795 -9.509683 0
M  V30 276 C -7.263740 -0.391861 -10.025948 0
M  V30 277 C -7.607083 -1.883189 -10.068819 0
M  V30 278 C -7.907684 -2.545004 -8.722001 0
M  V30 279 C -6.788392 -2.474967 -7.679095 0
M  V30 280 O -7.295307 2.506380 -9.018741 0
M  V30 281 O -1.372890 8.016076 -7.066759 0
M  V30 282 C -1.686728 7.007158 -7.680225 0
M  V30 283 C -2.924381 6.881160 -8.535770 0
M  V30 284 C -3.912604 5.886696 -7.935060 0
M  V30 285 C -5.052897 5.535689 -8.894101 0
M  V30 286 C -5.795971 4.284685 -8.428111 0
M  V30 287 C -6.874662 3.827682 -9.408177 0
M  V30 288 O -0.981209 5.843823 -7.700463 0
M  V30 289 O 4.981559 3.381627 -4.523956 0
M  V30 290 C 3.998160 3.154323 -3.827274 0
M  V30 291 C 2.919379 4.167129 -3.557628 0
M  V30 292 C 1.871189 4.218052 -4.663381 0
M  V30 293 C 0.890825 5.369375 -4.414611 0
M  V30 294 C -0.251135 5.438630 -5.424166 0
M  V30 295 C 0.176786 5.790345 -6.846458 0
M  V30 296 O 3.738340 1.998165 -3.153794 0
M  V30 297 O 2.162086 -3.920125 0.364057 0
M  V30 298 C 2.666824 -3.078563 1.089689 0
M  V30 299 C 3.187111 -1.729431 0.671259 0
M  V30 300 C 3.319539 -1.654816 -0.849292 0
M  V30 301 C 3.954247 -0.345499 -1.312138 0
M  V30 302 C 4.189413 -0.350678 -2.823567 0
M  V30 303 C 4.732669 0.979736 -3.336861 0
M  V30 304 O 2.843792 -3.300556 2.411125 0
M  V30 305 H 2.734141 -10.772821 -4.046574 0
M  V30 306 H 5.359367 -8.271480 -5.296540 0
M  V30 307 H 5.730687 -8.419231 -3.539052 0
M  V30 308 H 3.781739 -4.678117 -2.541384 0
M  V30 309 H 3.728397 -4.298959 -4.290017 0
M  V30 310 H -0.339481 -5.154394 -4.493949 0
M  V30 311 H -0.210373 -5.880621 -2.863540 0
M  V30 312 H -2.434833 -1.897723 -2.770376 0
M  V30 313 H -3.336554 -3.069855 -1.804117 0
M  V30 314 H -6.848234 -1.743579 -4.098399 0
M  V30 315 H -5.566872 -0.761561 -4.908479 0
M  V30 316 H -7.574834 2.704676 -3.758608 0
M  V30 317 H -9.229684 2.170444 -3.547749 0
M  V30 318 H -7.465454 2.100484 0.741393 0
M  V30 319 H -7.773460 3.809212 0.195889 0
M  V30 320 H -4.523979 5.519377 2.685912 0
M  V30 321 H -3.985179 3.811219 2.875498 0
M  V30 322 H -1.714162 4.099038 -0.561622 0
M  V30 323 H -1.899924 5.862618 -0.580416 0
M  V30 324 H 2.109861 5.589560 -1.039605 0
M  V30 325 H 2.354120 5.733121 0.740232 0
M  V30 326 H 4.643393 7.998727 1.007883 0
M  V30 327 H 5.022765 9.089527 -0.329246 0
M  V30 328 H 4.209537 6.207276 -0.951183 0
M  V30 329 H 3.304253 8.961964 -3.568001 0
M  V30 330 H 9.411479 8.021847 0.823088 0
M  V30 331 H 8.771525 7.390389 -0.725287 0
M  V30 332 H 7.271463 9.122035 0.420825 0
M  V30 333 H 7.454319 8.641592 3.828380 0
M  V30 334 H 9.041048 3.815433 1.891099 0
M  V30 335 H 10.668522 3.469077 1.303298 0
M  V30 336 H 10.257999 5.569951 -0.323849 0
M  V30 337 H 12.805865 5.995593 2.018720 0
M  V30 338 H 7.237376 1.407370 -0.886541 0
M  V30 339 H 7.577149 1.563746 0.805377 0
M  V30 340 H 7.405140 4.211325 0.284006 0
M  V30 341 H 6.399883 4.106421 -3.144170 0
M  V30 342 H 3.362889 2.003183 0.801383 0
M  V30 343 H 3.290085 2.880078 2.320944 0
M  V30 344 H 5.993694 2.092241 2.256425 0
M  V30 345 H 5.981681 5.435177 2.866060 0
M  V30 346 H 4.701148 -0.973124 3.928734 0
M  V30 347 H 2.968600 -1.025359 4.253428 0
M  V30 348 H 4.561144 1.593020 4.211752 0
M  V30 349 H 0.600861 1.601467 4.206926 0
M  V30 350 H 2.381450 -1.533579 7.512733 0
M  V30 351 H 2.261806 -2.260150 5.935837 0
M  V30 352 H 4.878981 -2.302933 5.869046 0
M  V30 353 H 6.315266 -2.016048 8.926881 0
M  V30 354 H 1.365736 -5.752521 6.782603 0
M  V30 355 H 1.259748 -4.350830 5.744090 0
M  V30 356 H 3.902929 -4.300674 5.770628 0
M  V30 357 H 3.898021 -6.582528 9.015616 0
M  V30 358 H 3.182017 -8.986912 3.878577 0
M  V30 359 H 2.197269 -7.838223 2.956084 0
M  V30 360 H 3.077604 -7.480931 5.864435 0
M  V30 361 H 0.368690 -9.763432 5.805103 0
M  V30 362 H 6.449221 -7.302265 0.975062 0
M  V30 363 H 6.645635 -7.708957 2.696157 0
M  V30 364 H 4.498092 -8.541060 1.885609 0
M  V30 365 H 2.442596 -5.552632 0.614852 0
M  V30 366 H 9.305304 -4.116798 2.590340 0
M  V30 367 H 8.271188 -4.717848 3.905402 0
M  V30 368 H 8.297550 -6.213548 1.976985 0
M  V30 369 H 6.862575 -4.301380 -1.029020 0
M  V30 370 H 7.064592 -0.358767 3.933140 0
M  V30 371 H 7.006239 -1.736402 5.052400 0
M  V30 372 H 9.309878 -2.412046 3.920864 0
M  V30 373 H 9.214346 -1.045628 0.454960 0
M  V30 374 H 8.663155 2.559214 5.978627 0
M  V30 375 H 8.099915 1.785507 4.515766 0
M  V30 376 H 7.031886 0.093008 6.523011 0
M  V30 377 H 10.563516 0.911528 8.142191 0
M  V30 378 H 4.537734 3.916590 6.154768 0
M  V30 379 H 4.337750 2.458080 7.123270 0
M  V30 380 H 6.688206 2.497213 7.815522 0
M  V30 381 H 7.460338 6.052509 6.258445 0
M  V30 382 H 1.884649 6.076817 8.892486 0
M  V30 383 H 3.558835 6.514170 8.458799 0
M  V30 384 H 2.699036 4.416396 7.367906 0
M  V30 385 H 0.947527 2.680919 9.853609 0
M  V30 386 H 1.963039 8.470130 9.179016 0
M  V30 387 H 3.445167 9.037962 11.391101 0
M  V30 388 H 2.014663 7.999558 11.212335 0
M  V30 389 H 4.815287 7.121136 10.230714 0
M  V30 390 H 4.683020 7.668365 12.777684 0
M  V30 391 H 3.500566 6.329269 12.886715 0
M  V30 392 H 5.084791 1.185476 11.792736 0
M  V30 393 H 5.984860 0.442414 13.100516 0
M  V30 394 H 5.431562 2.341929 14.624786 0
M  V30 395 H 4.441553 3.077489 13.370084 0
M  V30 396 H 7.433814 2.495817 13.044905 0
M  V30 397 H 6.419398 3.378029 11.911387 0
M  V30 398 H 7.809528 4.890470 13.224000 0
M  V30 399 H 7.204007 4.240527 14.747921 0
M  V30 400 H 6.190073 6.436273 14.180773 0
M  V30 401 H 4.952187 5.164918 14.285575 0
M  V30 402 H -3.424699 -0.623940 12.012439 0
M  V30 403 H -3.785276 -0.144130 10.351298 0
M  V30 404 H -1.971463 1.239252 11.108944 0
M  V30 405 H -1.278195 0.121094 9.945646 0
M  V30 406 H -0.523953 -1.339608 11.897541 0
M  V30 407 H -1.149781 -0.114213 13.002451 0
M  V30 408 H 1.016707 0.343877 10.878382 0
M  V30 409 H 0.396863 1.581611 11.942398 0
M  V30 410 H 1.765191 -0.975804 12.917544 0
M  V30 411 H 1.254578 0.411662 13.929999 0
M  V30 412 H -2.921989 -0.880162 4.770017 0
M  V30 413 H -1.189283 -0.528860 4.603816 0
M  V30 414 H -2.626396 -0.956556 7.276484 0
M  V30 415 H -0.882005 -0.798430 7.052264 0
M  V30 416 H -0.986619 -2.880246 5.553337 0
M  V30 417 H -2.649449 -3.101512 6.091381 0
M  V30 418 H -0.958792 -4.476524 7.320569 0
M  V30 419 H -0.183280 -3.006632 7.906816 0
M  V30 420 H -1.684908 -4.140973 9.574597 0
M  V30 421 H -3.086164 -3.782073 8.521236 0
M  V30 422 H -4.166998 6.505270 5.710626 0
M  V30 423 H -3.086129 5.429139 4.810685 0
M  V30 424 H -3.077587 5.311054 7.418822 0
M  V30 425 H -2.294712 6.875349 7.400776 0
M  V30 426 H -0.396175 5.911382 6.049577 0
M  V30 427 H -0.584190 5.240201 7.656890 0
M  V30 428 H -0.040566 3.498183 6.027649 0
M  V30 429 H -1.423492 3.885120 5.043127 0
M  V30 430 H -2.979625 3.095514 6.808464 0
M  V30 431 H -1.653551 2.966984 7.956774 0
M  V30 432 H -2.552514 9.840807 -1.770797 0
M  V30 433 H -4.015885 10.670199 -2.301022 0
M  V30 434 H -4.657097 10.564101 -0.183501 0
M  V30 435 H -5.230076 8.950891 -0.577911 0
M  V30 436 H -2.392847 9.405216 0.459116 0
M  V30 437 H -3.328706 7.905952 0.476004 0
M  V30 438 H -4.870337 8.869581 2.177143 0
M  V30 439 H -4.085982 10.445725 2.014994 0
M  V30 440 H -1.876529 9.015697 2.706589 0
M  V30 441 H -2.987741 9.797653 3.863557 0
M  V30 442 H -5.204646 2.125960 -6.072449 0
M  V30 443 H -4.366899 1.495338 -4.662592 0
M  V30 444 H -4.275031 4.446673 -5.488959 0
M  V30 445 H -5.562903 3.791621 -4.485194 0
M  V30 446 H -2.594073 4.011598 -3.806071 0
M  V30 447 H -3.654235 2.957054 -2.901635 0
M  V30 448 H -3.560834 5.032453 -1.721586 0
M  V30 449 H -5.154744 4.936604 -2.385092 0
M  V30 450 H -2.946619 6.428899 -3.862813 0
M  V30 451 H -4.718066 6.555510 -4.075963 0
M  V30 452 H -2.322106 4.053727 -12.417697 0
M  V30 453 H -2.425403 2.499608 -13.268385 0
M  V30 454 H -1.699168 1.354905 -11.107902 0
M  V30 455 H -3.310596 2.052516 -11.130649 0
M  V30 456 H -1.249805 3.978875 -10.166159 0
M  V30 457 H -2.869358 3.642009 -9.576861 0
M  V30 458 H -0.384562 1.945349 -9.094908 0
M  V30 459 H -1.073159 3.083272 -7.964025 0
M  V30 460 H -1.610717 0.601434 -7.573798 0
M  V30 461 H -2.592270 0.626367 -9.019759 0
M  V30 462 H 3.747675 1.533905 -7.792541 0
M  V30 463 H 2.114552 2.039595 -8.238011 0
M  V30 464 H 2.599598 -0.815630 -8.965953 0
M  V30 465 H 3.954656 0.159630 -9.502597 0
M  V30 466 H 2.270079 -0.126287 -11.261409 0
M  V30 467 H 1.036164 0.619499 -10.246306 0
M  V30 468 H 3.597844 1.988008 -11.277811 0
M  V30 469 H 2.370400 2.773461 -10.272853 0
M  V30 470 H 1.867793 1.662901 -13.067747 0
M  V30 471 H 2.080182 3.379865 -12.627858 0
M  V30 472 H -0.054270 -1.654034 -3.390773 0
M  V30 473 H 0.989161 -0.218115 -3.393600 0
M  V30 474 H -0.379359 0.642276 -5.362824 0
M  V30 475 H -2.264543 -2.806203 -6.035945 0
M  V30 476 H -1.801829 0.713500 0.281839 0
M  V30 477 H -2.767762 0.528809 -1.200845 0
M  V30 478 H -0.274801 -1.074730 -1.240327 0
M  V30 479 H 1.385053 2.350954 -1.317210 0
M  V30 480 H -4.034138 -2.563496 2.545031 0
M  V30 481 H -2.828817 -3.247864 1.472092 0
M  V30 482 H -2.378234 -0.921673 1.850272 0
M  V30 483 H -4.888446 1.599016 1.059399 0
M  V30 484 H -6.714484 -2.856311 -1.000590 0
M  V30 485 H -8.013934 -2.985244 0.178658 0
M  V30 486 H -6.169116 -1.903820 1.199252 0
M  V30 487 H -6.060304 -4.839745 3.679057 0
M  V30 488 H -7.265472 -7.319024 0.016053 0
M  V30 489 H -9.029507 -7.403174 0.198568 0
M  V30 490 H -8.403786 -5.275079 1.033556 0
M  V30 491 H -10.417653 -3.795972 -1.893515 0
M  V30 492 H -9.139681 -9.860629 -3.646500 0
M  V30 493 H -8.759193 -8.197977 -4.130003 0
M  V30 494 H -8.249044 -9.201990 -1.289368 0
M  V30 495 H -11.915364 -7.811648 -1.977269 0
M  V30 496 H -5.217825 -11.423712 -5.491558 0
M  V30 497 H -4.966385 -9.698312 -5.325952 0
M  V30 498 H -7.380411 -11.261127 -4.274969 0
M  V30 499 H -7.814168 -8.669016 -7.253578 0
M  V30 500 H -4.497061 -12.718147 -0.923648 0
M  V30 501 H -4.957770 -11.009250 -1.057297 0
M  V30 502 H -5.812454 -12.306290 -2.989029 0
M  V30 503 H -3.433422 -14.844854 -3.513214 0
M  V30 504 H -1.867728 -9.074678 -1.641196 0
M  V30 505 H -2.263734 -8.451875 -0.005041 0
M  V30 506 H -3.418049 -10.694003 0.486402 0
M  V30 507 H -0.034239 -10.519099 1.560563 0
M  V30 508 H -4.910394 -8.127142 -3.468488 0
M  V30 509 H -5.955760 -7.226460 -2.346054 0
M  V30 510 H -2.896503 -7.116580 -2.174295 0
M  V30 511 H -4.206750 -4.603174 -0.163225 0
M  V30 512 H -4.238383 -5.701433 -6.073449 0
M  V30 513 H -4.965090 -4.176299 -5.549128 0
M  V30 514 H -6.200753 -6.918590 -4.936291 0
M  V30 515 H -8.727069 -4.898141 -3.875034 0
M  V30 516 H -4.717091 -2.789141 -7.324735 0
M  V30 517 H -5.097728 -2.690406 -9.023540 0
M  V30 518 H -4.368196 -4.980112 -8.148315 0
M  V30 519 H -7.030272 -6.438042 -10.274215 0
M  V30 520 H -9.358044 0.182849 -9.953674 0
M  V30 521 H -8.522746 0.402342 -8.424127 0
M  V30 522 H -6.998009 -0.078060 -11.045067 0
M  V30 523 H -6.365722 -0.222591 -9.421129 0
M  V30 524 H -8.477153 -2.023771 -10.721752 0
M  V30 525 H -6.782964 -2.405626 -10.562533 0
M  V30 526 H -8.169547 -3.593301 -8.899940 0
M  V30 527 H -8.807530 -2.086253 -8.293211 0
M  V30 528 H -7.151931 -2.932249 -6.750687 0
M  V30 529 H -6.605954 -1.423815 -7.428937 0
M  V30 530 H -2.610357 6.582529 -9.542078 0
M  V30 531 H -3.390609 7.866581 -8.628222 0
M  V30 532 H -4.329728 6.294332 -7.005882 0
M  V30 533 H -3.380209 4.969832 -7.654170 0
M  V30 534 H -4.649725 5.349196 -9.896089 0
M  V30 535 H -5.746093 6.379547 -8.984144 0
M  V30 536 H -6.250894 4.451024 -7.442687 0
M  V30 537 H -5.086703 3.461198 -8.294048 0
M  V30 538 H -6.465673 3.789730 -10.424843 0
M  V30 539 H -7.731743 4.509862 -9.380518 0
M  V30 540 H 2.453924 3.946404 -2.590718 0
M  V30 541 H 3.409993 5.138782 -3.443354 0
M  V30 542 H 2.368268 4.343291 -5.631934 0
M  V30 543 H 1.332187 3.264850 -4.703707 0
M  V30 544 H 1.432321 6.322870 -4.408540 0
M  V30 545 H 0.453377 5.250762 -3.413619 0
M  V30 546 H -0.978382 6.177653 -5.071017 0
M  V30 547 H -0.792262 4.490500 -5.435437 0
M  V30 548 H 0.730467 6.735949 -6.881186 0
M  V30 549 H 0.828582 5.012440 -7.255598 0
M  V30 550 H 4.170887 -1.579271 1.130604 0
M  V30 551 H 2.491503 -0.972305 1.038147 0
M  V30 552 H 3.915408 -2.503283 -1.203604 0
M  V30 553 H 2.325284 -1.755423 -1.300126 0
M  V30 554 H 3.303892 0.489958 -1.033607 0
M  V30 555 H 4.908592 -0.205304 -0.794383 0
M  V30 556 H 3.246124 -0.583105 -3.329636 0
M  V30 557 H 4.895823 -1.147266 -3.078644 0
M  V30 558 H 4.981794 0.874595 -4.400805 0
M  V30 559 H 5.641505 1.258396 -2.794317 0
M  V30 560 H 2.633699 -4.258911 2.557286 0
M  V30 END ATOM
M  V30 BEGIN BOND
M  V30 1 2 1 2
M  V30 2 1 2 3
M  V30 3 1 2 4
M  V30 4 2 5 6
M  V30 5 1 6 7
M  V30 6 1 6 8
M  V30 7 1 4 7
M  V30 8 2 9 10
M  V30 9 1 10 11
M  V30 10 1 10 12
M  V30 11 1 8 11
M  V30 12 2 13 14
M  V30 13 1 14 15
M  V30 14 1 14 16
M  V30 15 1 12 15
M  V30 16 2 17 18
M  V30 17 1 18 19
M  V30 18 1 18 20
M  V30 19 1 16 19
M  V30 20 2 21 22
M  V30 21 1 22 23
M  V30 22 1 22 24
M  V30 23 1 20 23
M  V30 24 2 25 26
M  V30 25 1 26 27
M  V30 26 1 26 28
M  V30 27 1 24 27
M  V30 28 2 29 30
M  V30 29 1 30 31
M  V30 30 1 30 32
M  V30 31 1 28 31
M  V30 32 2 33 34
M  V30 33 1 34 35
M  V30 34 1 34 36
M  V30 35 1 32 35
M  V30 36 2 37 38
M  V30 37 1 38 39
M  V30 38 1 38 40
M  V30 39 1 36 39
M  V30 40 1 41 42
M  V30 41 1 42 43
M  V30 42 1 42 44
M  V30 43 2 44 45
M  V30 44 1 44 46
M  V30 45 1 40 43
M  V30 46 1 47 48
M  V30 47 1 48 49
M  V30 48 1 48 50
M  V30 49 2 50 51
M  V30 50 1 50 52
M  V30 51 1 41 49
M  V30 52 1 53 54
M  V30 53 1 54 55
M  V30 54 1 54 56
M  V30 55 2 56 57
M  V30 56 1 56 58
M  V30 57 1 47 55
M  V30 58 1 59 60
M  V30 59 1 60 61
M  V30 60 1 60 62
M  V30 61 2 62 63
M  V30 62 1 62 64
M  V30 63 1 53 61
M  V30 64 1 65 66
M  V30 65 1 66 67
M  V30 66 1 66 68
M  V30 67 2 68 69
M  V30 68 1 68 70
M  V30 69 1 59 67
M  V30 70 1 71 72
M  V30 71 1 72 73
M  V30 72 1 72 74
M  V30 73 2 74 75
M  V30 74 1 74 76
M  V30 75 1 65 73
M  V30 76 1 77 78
M  V30 77 1 78 79
M  V30 78 1 78 80
M  V30 79 2 80 81
M  V30 80 1 80 82
M  V30 81 1 71 79
M  V30 82 1 83 84
M  V30 83 1 84 85
M  V30 84 1 84 86
M  V30 85 2 86 87
M  V30 86 1 86 88
M  V30 87 1 77 85
M  V30 88 1 89 90
M  V30 89 1 90 91
M  V30 90 1 90 92
M  V30 91 2 92 93
M  V30 92 1 92 94
M  V30 93 1 83 91
M  V30 94 1 95 96
M  V30 95 1 96 97
M  V30 96 1 96 98
M  V30 97 2 98 99
M  V30 98 1 98 100
M  V30 99 1 89 97
M  V30 100 1 101 102
M  V30 101 1 102 103
M  V30 102 1 102 104
M  V30 103 2 104 105
M  V30 104 1 104 106
M  V30 105 1 95 103
M  V30 106 1 107 108
M  V30 107 1 108 109
M  V30 108 1 108 110
M  V30 109 2 110 111
M  V30 110 1 110 112
M  V30 111 1 101 109
M  V30 112 1 113 114
M  V30 113 1 114 115
M  V30 114 1 114 116
M  V30 115 2 116 117
M  V30 116 1 116 118
M  V30 117 1 107 115
M  V30 118 1 119 120
M  V30 119 1 120 121
M  V30 120 1 120 122
M  V30 121 2 122 123
M  V30 122 1 122 124
M  V30 123 1 113 121
M  V30 124 1 125 126
M  V30 125 1 126 127
M  V30 126 1 126 128
M  V30 127 2 128 129
M  V30 128 1 128 130
M  V30 129 1 119 127
M  V30 130 1 131 132
M  V30 131 1 132 133
M  V30 132 1 133 134
M  V30 133 1 133 135
M  V30 134 1 135 136
M  V30 135 1 125 134
M  V30 136 2 137 138
M  V30 137 1 138 139
M  V30 138 1 139 140
M  V30 139 1 140 141
M  V30 140 1 141 142
M  V30 141 1 142 143
M  V30 142 1 138 144
M  V30 143 1 136 143
M  V30 144 2 145 146
M  V30 145 1 146 147
M  V30 146 1 147 148
M  V30 147 1 148 149
M  V30 148 1 149 150
M  V30 149 1 150 151
M  V30 150 1 146 152
M  V30 151 1 144 151
M  V30 152 2 153 154
M  V30 153 1 154 155
M  V30 154 1 155 156
M  V30 155 1 156 157
M  V30 156 1 157 158
M  V30 157 1 158 159
M  V30 158 1 154 160
M  V30 159 1 152 159
M  V30 160 2 161 162
M  V30 161 1 162 163
M  V30 162 1 163 164
M  V30 163 1 164 165
M  V30 164 1 165 166
M  V30 165 1 166 167
M  V30 166 1 162 168
M  V30 167 1 160 167
M  V30 168 2 169 170
M  V30 169 1 170 171
M  V30 170 1 171 172
M  V30 171 1 172 173
M  V30 172 1 173 174
M  V30 173 1 174 175
M  V30 174 1 170 176
M  V30 175 1 168 175
M  V30 176 2 177 178
M  V30 177 1 178 179
M  V30 178 1 179 180
M  V30 179 1 180 181
M  V30 180 1 181 182
M  V30 181 1 182 183
M  V30 182 1 178 184
M  V30 183 1 176 183
M  V30 184 2 185 186
M  V30 185 1 186 187
M  V30 186 1 187 188
M  V30 187 1 188 189
M  V30 188 1 189 190
M  V30 189 1 190 191
M  V30 190 1 186 192
M  V30 191 1 184 191
M  V30 192 2 193 194
M  V30 193 1 194 195
M  V30 194 1 195 196
M  V30 195 1 196 197
M  V30 196 1 197 198
M  V30 197 1 198 199
M  V30 198 1 194 200
M  V30 199 1 192 199
M  V30 200 1 201 202
M  V30 201 1 202 203
M  V30 202 1 202 204
M  V30 203 2 204 205
M  V30 204 1 204 206
M  V30 205 1 200 203
M  V30 206 1 207 208
M  V30 207 1 208 209
M  V30 208 1 208 210
M  V30 209 2 210 211
M  V30 210 1 210 212
M  V30 211 1 201 209
M  V30 212 1 213 214
M  V30 213 1 214 215
M  V30 214 1 214 216
M  V30 215 2 216 217
M  V30 216 1 216 218
M  V30 217 1 207 215
M  V30 218 1 219 220
M  V30 219 1 220 221
M  V30 220 1 220 222
M  V30 221 2 222 223
M  V30 222 1 222 224
M  V30 223 1 213 221
M  V30 224 1 225 226
M  V30 225 1 226 227
M  V30 226 1 226 228
M  V30 227 2 228 229
M  V30 228 1 228 230
M  V30 229 1 219 227
M  V30 230 1 231 232
M  V30 231 1 232 233
M  V30 232 1 232 234
M  V30 233 2 234 235
M  V30 234 1 234 236
M  V30 235 1 225 233
M  V30 236 1 237 238
M  V30 237 1 238 239
M  V30 238 1 238 240
M  V30 239 2 240 241
M  V30 240 1 240 242
M  V30 241 1 231 239
M  V30 242 1 243 244
M  V30 243 1 244 245
M  V30 244 1 244 246
M  V30 245 2 246 247
M  V30 246 1 246 248
M  V30 247 1 237 245
M  V30 248 1 249 250
M  V30 249 1 250 251
M  V30 250 1 250 252
M  V30 251 2 252 253
M  V30 252 1 252 254
M  V30 253 1 243 251
M  V30 254 1 255 256
M  V30 255 1 256 257
M  V30 256 1 256 258
M  V30 257 2 258 259
M  V30 258 1 258 260
M  V30 259 1 249 257
M  V30 260 1 261 262
M  V30 261 1 262 263
M  V30 262 1 262 264
M  V30 263 2 264 265
M  V30 264 1 264 266
M  V30 265 1 255 263
M  V30 266 1 267 268
M  V30 267 1 268 269
M  V30 268 1 268 270
M  V30 269 2 270 271
M  V30 270 1 270 272
M  V30 271 1 261 269
M  V30 272 2 273 274
M  V30 273 1 274 275
M  V30 274 1 275 276
M  V30 275 1 276 277
M  V30 276 1 277 278
M  V30 277 1 278 279
M  V30 278 1 274 280
M  V30 279 1 267 279
M  V30 280 2 281 282
M  V30 281 1 282 283
M  V30 282 1 283 284
M  V30 283 1 284 285
M  V30 284 1 285 286
M  V30 285 1 286 287
M  V30 286 1 282 288
M  V30 287 1 280 287
M  V30 288 2 289 290
M  V30 289 1 290 291
M  V30 290 1 291 292
M  V30 291 1 292 293
M  V30 292 1 293 294
M  V30 293 1 294 295
M  V30 294 1 290 296
M  V30 295 1 288 295
M  V30 296 2 297 298
M  V30 297 1 298 299
M  V30 298 1 299 300
M  V30 299 1 300 301
M  V30 300 1 301 302
M  V30 301 1 302 303
M  V30 302 1 298 304
M  V30 303 1 296 303
M  V30 304 1 3 305
M  V30 305 1 4 306
M  V30 306 1 4 307
M  V30 307 1 8 308
M  V30 308 1 8 309
M  V30 309 1 12 310
M  V30 310 1 12 311
M  V30 311 1 16 312
M  V30 312 1 16 313
M  V30 313 1 20 314
M  V30 314 1 20 315
M  V30 315 1 24 316
M  V30 316 1 24 317
M  V30 317 1 28 318
M  V30 318 1 28 319
M  V30 319 1 32 320
M  V30 320 1 32 321
M  V30 321 1 36 322
M  V30 322 1 36 323
M  V30 323 1 40 324
M  V30 324 1 40 325
M  V30 325 1 41 326
M  V30 326 1 41 327
M  V30 327 1 42 328 CFG=3
M  V30 328 1 46 329
M  V30 329 1 47 330
M  V30 330 1 47 331
M  V30 331 1 48 332 CFG=3
M  V30 332 1 52 333
M  V30 333 1 53 334
M  V30 334 1 53 335
M  V30 335 1 54 336 CFG=3
M  V30 336 1 58 337
M  V30 337 1 59 338
M  V30 338 1 59 339
M  V30 339 1 60 340 CFG=1
M  V30 340 1 64 341
M  V30 341 1 65 342
M  V30 342 1 65 343
M  V30 343 1 66 344 CFG=1
M  V30 344 1 70 345
M  V30 345 1 71 346
M  V30 346 1 71 347
M  V30 347 1 72 348 CFG=1
M  V30 348 1 76 349
M  V30 349 1 77 350
M  V30 350 1 77 351
M  V30 351 1 78 352 CFG=3
M  V30 352 1 82 353
M  V30 353 1 83 354
M  V30 354 1 83 355
M  V30 355 1 84 356 CFG=3
M  V30 356 1 88 357
M  V30 357 1 89 358
M  V30 358 1 89 359
M  V30 359 1 90 360 CFG=1
M  V30 360 1 94 361
M  V30 361 1 95 362
M  V30 362 1 95 363
M  V30 363 1 96 364 CFG=3
M  V30 364 1 100 365
M  V30 365 1 101 366
M  V30 366 1 101 367
M  V30 367 1 102 368 CFG=3
M  V30 368 1 106 369
M  V30 369 1 107 370
M  V30 370 1 107 371
M  V30 371 1 108 372 CFG=1
M  V30 372 1 112 373
M  V30 373 1 113 374
M  V30 374 1 113 375
M  V30 375 1 114 376 CFG=1
M  V30 376 1 118 377
M  V30 377 1 119 378
M  V30 378 1 119 379
M  V30 379 1 120 380 CFG=1
M  V30 380 1 124 381
M  V30 381 1 125 382
M  V30 382 1 125 383
M  V30 383 1 126 384 CFG=3
M  V30 384 1 130 385
M  V30 385 1 131 386
M  V30 386 1 132 387
M  V30 387 1 132 388
M  V30 388 1 133 389
M  V30 389 1 135 390
M  V30 390 1 135 391
M  V30 391 1 139 392
M  V30 392 1 139 393
M  V30 393 1 140 394
M  V30 394 1 140 395
M  V30 395 1 141 396
M  V30 396 1 141 397
M  V30 397 1 142 398
M  V30 398 1 142 399
M  V30 399 1 143 400
M  V30 400 1 143 401
M  V30 401 1 147 402
M  V30 402 1 147 403
M  V30 403 1 148 404
M  V30 404 1 148 405
M  V30 405 1 149 406
M  V30 406 1 149 407
M  V30 407 1 150 408
M  V30 408 1 150 409
M  V30 409 1 151 410
M  V30 410 1 151 411
M  V30 411 1 155 412
M  V30 412 1 155 413
M  V30 413 1 156 414
M  V30 414 1 156 415
M  V30 415 1 157 416
M  V30 416 1 157 417
M  V30 417 1 158 418
M  V30 418 1 158 419
M  V30 419 1 159 420
M  V30 420 1 159 421
M  V30 421 1 163 422
M  V30 422 1 163 423
M  V30 423 1 164 424
M  V30 424 1 164 425
M  V30 425 1 165 426
M  V30 426 1 165 427
M  V30 427 1 166 428
M  V30 428 1 166 429
M  V30 429 1 167 430
M  V30 430 1 167 431
M  V30 431 1 171 432
M  V30 432 1 171 433
M  V30 433 1 172 434
M  V30 434 1 172 435
M  V30 435 1 173 436
M  V30 436 1 173 437
M  V30 437 1 174 438
M  V30 438 1 174 439
M  V30 439 1 175 440
M  V30 440 1 175 441
M  V30 441 1 179 442
M  V30 442 1 179 443
M  V30 443 1 180 444
M  V30 444 1 180 445
M  V30 445 1 181 446
M  V30 446 1 181 447
M  V30 447 1 182 448
M  V30 448 1 182 449
M  V30 449 1 183 450
M  V30 450 1 183 451
M  V30 451 1 187 452
M  V30 452 1 187 453
M  V30 453 1 188 454
M  V30 454 1 188 455
M  V30 455 1 189 456
M  V30 456 1 189 457
M  V30 457 1 190 458
M  V30 458 1 190 459
M  V30 459 1 191 460
M  V30 460 1 191 461
M  V30 461 1 195 462
M  V30 462 1 195 463
M  V30 463 1 196 464
M  V30 464 1 196 465
M  V30 465 1 197 466
M  V30 466 1 197 467
M  V30 467 1 198 468
M  V30 468 1 198 469
M  V30 469 1 199 470
M  V30 470 1 199 471
M  V30 471 1 201 472
M  V30 472 1 201 473
M  V30 473 1 202 474
M  V30 474 1 206 475
M  V30 475 1 207 476
M  V30 476 1 207 477
M  V30 477 1 208 478
M  V30 478 1 212 479
M  V30 479 1 213 480
M  V30 480 1 213 481
M  V30 481 1 214 482
M  V30 482 1 218 483
M  V30 483 1 219 484
M  V30 484 1 219 485
M  V30 485 1 220 486
M  V30 486 1 224 487
M  V30 487 1 225 488
M  V30 488 1 225 489
M  V30 489 1 226 490
M  V30 490 1 230 491
M  V30 491 1 231 492
M  V30 492 1 231 493
M  V30 493 1 232 494
M  V30 494 1 236 495
M  V30 495 1 237 496
M  V30 496 1 237 497
M  V30 497 1 238 498
M  V30 498 1 242 499
M  V30 499 1 243 500
M  V30 500 1 243 501
M  V30 501 1 244 502
M  V30 502 1 248 503
M  V30 503 1 249 504
M  V30 504 1 249 505
M  V30 505 1 250 506
M  V30 506 1 254 507
M  V30 507 1 255 508
M  V30 508 1 255 509
M  V30 509 1 256 510
M  V30 510 1 260 511
M  V30 511 1 261 512
M  V30 512 1 261 513
M  V30 513 1 262 514
M  V30 514 1 266 515
M  V30 515 1 267 516
M  V30 516 1 267 517
M  V30 517 1 268 518
M  V30 518 1 272 519
M  V30 519 1 275 520
M  V30 520 1 275 521
M  V30 521 1 276 522
M  V30 522 1 276 523
M  V30 523 1 277 524
M  V30 524 1 277 525
M  V30 525 1 278 526
M  V30 526 1 278 527
M  V30 527 1 279 528
M  V30 528 1 279 529
M  V30 529 1 283 530
M  V30 530 1 283 531
M  V30 531 1 284 532
M  V30 532 1 284 533
M  V30 533 1 285 534
M  V30 534 1 285 535
M  V30 535 1 286 536
M  V30 536 1 286 537
M  V30 537 1 287 538
M  V30 538 1 287 539
M  V30 539 1 291 540
M  V30 540 1 291 541
M  V30 541 1 292 542
M  V30 542 1 292 543
M  V30 543 1 293 544
M  V30 544 1 293 545
M  V30 545 1 294 546
M  V30 546 1 294 547
M  V30 547 1 295 548
M  V30 548 1 295 549
M  V30 549 1 299 550
M  V30 550 1 299 551
M  V30 551 1 300 552
M  V30 552 1 300 553
M  V30 553 1 301 554
M  V30 554 1 301 555
M  V30 555 1 302 556
M  V30 556 1 302 557
M  V30 557 1 303 558
M  V30 558 1 303 559
M  V30 559 1 304 560
M  V30 END BOND
M  V30 BEGIN COLLECTION
M  V30 MDLV30/STEABS ATOMS=(0)
M  V30 END COLLECTION
M  V30 END CTAB
M  END
