
     RDKit          3D

 14 13  0  0  0  0  0  0  0  0999 V2000
    1.6800    0.6071   -1.0574 O   0  0  0  0  0  0  0  0  0  0  0  0
    1.2377   -0.3829   -0.1700 C   0  0  0  0  0  0  0  0  0  0  0  0
   -0.0380    0.0781    0.5408 C   0  0  0  0  0  0  0  0  0  0  0  0
   -0.3857   -0.8611    1.5152 O   0  0  0  0  0  0  0  0  0  0  0  0
    0.5537   -0.8368    2.1419 R   0  0  0  0  0  0  0  0  0  0  0  0
   -1.2000    0.2467   -0.4426 C   0  0  0  0  0  0  0  0  0  0  0  0
   -2.3367    0.6899    0.2356 O   0  0  0  0  0  0  0  0  0  0  0  0
   -2.8716    0.7955   -0.0566 R   0  0  0  0  0  0  0  0  0  0  0  0
    2.4979    0.2453   -1.4877 H   0  0  0  0  0  0  0  0  0  0  0  0
    2.0274   -0.5742    0.5909 H   0  0  0  0  0  0  0  0  0  0  0  0
    1.0424   -1.3299   -0.7225 H   0  0  0  0  0  0  0  0  0  0  0  0
    0.1600    1.0507    1.0423 H   0  0  0  0  0  0  0  0  0  0  0  0
   -0.9382    0.9930   -1.2224 H   0  0  0  0  0  0  0  0  0  0  0  0
   -1.4288   -0.7215   -0.9374 H   0  0  0  0  0  0  0  0  0  0  0  0
  1  2  1  0
  2  3  1  0
  3  4  1  0
  4  5  1  0
  3  6  1  0
  6  7  1  0
  7  8  1  0
  1  9  1  0
  2 10  1  0
  2 11  1  0
  3 12  1  0
  6 13  1  0
  6 14  1  0
M  END
