
     RDKit          3D

 20 19  0  0  0  0  0  0  0  0999 V2000
    2.5627   -0.4422    1.7225 O   0  0  0  0  0  0  0  0  0  0  0  0
    2.4301    0.1030    0.5954 C   0  0  0  0  0  0  0  0  0  0  0  0
    1.8297   -0.6594   -0.5457 C   0  0  0  0  0  0  0  0  0  0  0  0
    0.3680   -0.2616   -0.7871 C   0  0  0  0  0  0  0  0  0  0  0  0
   -0.5519   -0.7026    0.3649 C   0  0  0  0  0  0  0  0  0  0  0  0
   -2.0376   -0.4713    0.0520 C   0  0  0  0  0  0  0  0  0  0  0  0
   -2.4086    1.0085    0.0144 C   0  0  0  0  0  0  0  0  0  0  0  0
   -3.1010    1.1863   -0.1176 R   0  0  0  0  0  0  0  0  0  0  0  0
    2.8152    1.4261    0.4216 O   0  0  0  0  0  0  0  0  0  0  0  0
    3.1457    1.7328    1.2112 R   0  0  0  0  0  0  0  0  0  0  0  0
    1.9012   -1.7531   -0.3568 H   0  0  0  0  0  0  0  0  0  0  0  0
    2.4176   -0.4414   -1.4631 H   0  0  0  0  0  0  0  0  0  0  0  0
    0.3069    0.8392   -0.9281 H   0  0  0  0  0  0  0  0  0  0  0  0
    0.0301   -0.7460   -1.7292 H   0  0  0  0  0  0  0  0  0  0  0  0
   -0.4048   -1.7894    0.5493 H   0  0  0  0  0  0  0  0  0  0  0  0
   -0.2818   -0.1632    1.2987 H   0  0  0  0  0  0  0  0  0  0  0  0
   -2.3056   -0.9448   -0.9169 H   0  0  0  0  0  0  0  0  0  0  0  0
   -2.6466   -0.9579    0.8433 H   0  0  0  0  0  0  0  0  0  0  0  0
   -2.0978    1.5242    0.9477 H   0  0  0  0  0  0  0  0  0  0  0  0
   -1.9714    1.5127   -0.8722 H   0  0  0  0  0  0  0  0  0  0  0  0
  1  2  2  0
  2  3  1  0
  3  4  1  0
  4  5  1  0
  5  6  1  0
  6  7  1  0
  7  8  1  0
  2  9  1  0
  9 10  1  0
  3 11  1  0
  3 12  1  0
  4 13  1  0
  4 14  1  0
  5 15  1  0
  5 16  1  0
  6 17  1  0
  6 18  1  0
  7 19  1  0
  7 20  1  0
M  END
